lig_jmc_30
                    3D
 Schrodinger Suite 2021-1.
 37 39  0  0  1  0            999 V2000
   -4.7581   -2.7844  -16.5183 H   0  0  0  0  0  0
   -5.3504   -3.6470  -16.2493 C   0  0  0  0  0  0
   -4.7668   -4.9245  -16.2236 C   0  0  0  0  0  0
   -5.5346   -6.0487  -15.8633 C   0  0  0  0  0  0
   -6.9027   -5.9037  -15.5145 C   0  0  0  0  0  0
   -7.4874   -4.6121  -15.5599 C   0  0  0  0  0  0
   -6.7094   -3.4979  -15.9251 C   0  0  0  0  0  0
   -7.1617   -2.5185  -15.9611 H   0  0  0  0  0  0
   -9.1624   -4.3548  -15.2137 Cl  0  0  0  0  0  0
   -7.7204   -7.0904  -15.0874 C   0  0  0  0  0  0
   -8.1419   -7.1662  -13.9334 O   0  0  0  0  0  0
   -7.9117   -8.0055  -16.0562 N   0  0  0  0  0  0
   -7.4387   -7.8110  -16.9264 H   0  0  0  0  0  0
   -8.7288   -9.1683  -16.0667 C   0  0  0  0  0  0
   -9.5666   -9.5735  -15.0060 C   0  0  0  0  0  0
  -10.3625  -10.7164  -15.1853 C   0  0  0  0  0  0
  -10.3491  -11.4653  -16.3075 N   0  0  0  0  0  0
   -9.5354  -11.1080  -17.3275 C   0  0  0  0  0  0
   -8.7256   -9.9473  -17.2409 C   0  0  0  0  0  0
   -8.1107   -9.6320  -18.0697 H   0  0  0  0  0  0
   -9.5622  -11.9027  -18.5059 N   0  0  0  0  0  0
  -10.4046  -12.4542  -18.6122 H   0  0  0  0  0  0
   -8.6202  -12.0704  -19.4570 C   0  0  0  0  0  0
   -7.5435  -11.4772  -19.4915 O   0  0  0  0  0  0
   -9.0163  -13.0533  -20.5084 C   0  0  2  0  0  0
   -7.9635  -13.8422  -21.2762 C   0  0  1  0  0  0
   -8.6961  -12.7160  -21.9502 C   0  0  0  0  0  0
   -8.1366  -11.8043  -22.1539 H   0  0  0  0  0  0
   -9.4526  -12.9656  -22.6920 H   0  0  0  0  0  0
   -8.2425  -14.8538  -21.5619 H   0  0  0  0  0  0
   -6.5348  -13.8040  -21.1435 C   0  0  0  0  0  0
   -5.3816  -13.7998  -21.0528 N   0  0  0  0  0  0
   -9.9634  -13.5647  -20.3422 H   0  0  0  0  0  0
  -11.0280  -11.0453  -14.4008 H   0  0  0  0  0  0
   -9.6417   -9.0286  -14.0782 H   0  0  0  0  0  0
   -4.7557   -7.5878  -15.8532 Cl  0  0  0  0  0  0
   -3.7222   -5.0408  -16.4744 H   0  0  0  0  0  0
  1  2  1  0  0  0
  2  7  1  0  0  0
  2  3  2  0  0  0
  3  4  1  0  0  0
  3 37  1  0  0  0
  4  5  2  0  0  0
  4 36  1  0  0  0
  5  6  1  0  0  0
  5 10  1  0  0  0
  6  7  2  0  0  0
  6  9  1  0  0  0
  7  8  1  0  0  0
 10 11  2  0  0  0
 10 12  1  0  0  0
 12 13  1  0  0  0
 12 14  1  0  0  0
 14 19  1  0  0  0
 14 15  2  0  0  0
 15 16  1  0  0  0
 15 35  1  0  0  0
 16 17  2  0  0  0
 16 34  1  0  0  0
 17 18  1  0  0  0
 18 19  2  0  0  0
 18 21  1  0  0  0
 19 20  1  0  0  0
 21 22  1  0  0  0
 21 23  1  0  0  0
 23 24  2  0  0  0
 23 25  1  0  0  0
 25 27  1  0  0  0
 25 26  1  0  0  0
 25 33  1  0  0  0
 26 27  1  0  0  0
 26 30  1  0  0  0
 26 31  1  0  0  0
 27 28  1  0  0  0
 27 29  1  0  0  0
 31 32  3  0  0  0
M  END
$$$$
