Untitled
  xed2sdf           3D
 
 57 61  0  0  0  0  0  0  0  0999 V2000
   32.1790   38.5510   25.9320 C   0  0  0  0  0  0  0  0  0  0  0  0
   31.9450   37.7970   27.2050 C   0  0  0  0  0  0  0  0  0  0  0  0
   33.8400   38.8920   28.2930 C   0  0  0  0  0  0  0  0  0  0  0  0
   34.0220   39.7960   27.0120 C   0  0  0  0  0  0  0  0  0  0  0  0
   38.3400   36.6100   17.1620 C   0  0  0  0  0  0  0  0  0  0  0  0
   32.4410   38.5200   28.3440 O   0  0  0  0  0  0  0  0  0  0  0  0
   34.6960   35.2240   20.8750 C   0  0  0  0  0  0  0  0  0  0  0  0
   37.3890   36.2910   18.1140 C   0  0  0  0  0  0  0  0  0  0  0  0
   34.0510   39.0620   23.3320 C   0  0  0  0  0  0  0  0  0  0  0  0
   33.6580   38.9500   25.7650 C   0  0  0  0  0  0  0  0  0  0  0  0
   34.5220   37.9960   21.0070 C   0  0  0  0  0  0  0  0  0  0  0  0
   34.8550   37.3920   19.8030 C   0  0  0  0  0  0  0  0  0  0  0  0
   38.0700   36.5260   15.8370 C   0  0  0  0  0  0  0  0  0  0  0  0
   36.9180   35.9020   15.4530 C   0  0  0  0  0  0  0  0  0  0  0  0
   35.9410   35.5490   16.3490 C   0  0  0  0  0  0  0  0  0  0  0  0
   34.3710   37.2190   22.1670 C   0  0  0  0  0  0  0  0  0  0  0  0
   34.3830   39.3750   21.1820 C   0  0  0  0  0  0  0  0  0  0  0  0
   34.8790   36.0140   19.6970 C   0  0  0  0  0  0  0  0  0  0  0  0
   36.1390   35.7760   17.6800 C   0  0  0  0  0  0  0  0  0  0  0  0
   37.7380   36.1920   19.4000 F   0  0  0  0  0  0  0  0  0  0  0  0
   38.8350   36.9990   14.9120 F   0  0  0  0  0  0  0  0  0  0  0  0
   35.1750   35.3330   18.5850 O   0  0  0  0  0  0  0  0  0  0  0  0
   34.1790   39.9660   22.3330 N   0  0  0  0  0  0  0  0  0  0  0  0
   34.6640   33.9820   20.7170 O   0  0  0  0  0  0  0  0  0  0  0  0
   34.3780   35.8600   22.1280 N   0  0  0  0  0  0  0  0  0  0  0  0
   34.0690   37.7450   23.2960 N   0  0  0  0  0  0  0  0  0  0  0  0
   33.8100   39.7020   24.5150 N   0  0  0  0  0  0  0  0  0  0  0  0
   31.6580   33.8130   23.8510 C   0  0  0  0  0  0  0  0  0  0  0  0
   32.2520   34.9860   23.0390 C   0  0  0  0  0  0  0  0  0  0  0  0
   33.8050   34.9700   23.1630 C   0  0  0  0  0  0  0  0  0  0  0  0
   34.3440   35.2120   24.5530 C   0  0  0  0  0  0  0  0  0  0  0  0
   34.0160   33.9750   25.3990 C   0  0  0  0  0  0  0  0  0  0  0  0
   32.2730   33.8690   25.6080 S   0  0  0  0  0  0  0  0  0  0  0  0
   31.8660   37.8300   25.1710 H   0  0  0  0  0  0  0  0  0  0  0  0
   31.6160   39.4750   25.7680 H   0  0  0  0  0  0  0  0  0  0  0  0
   30.8700   37.5920   27.2220 H   0  0  0  0  0  0  0  0  0  0  0  0
   32.5400   36.8780   27.1910 H   0  0  0  0  0  0  0  0  0  0  0  0
   34.2030   39.5530   29.0850 H   0  0  0  0  0  0  0  0  0  0  0  0
   34.5910   38.0960   28.3070 H   0  0  0  0  0  0  0  0  0  0  0  0
   35.0660   40.1130   26.9240 H   0  0  0  0  0  0  0  0  0  0  0  0
   33.3410   40.6510   27.0670 H   0  0  0  0  0  0  0  0  0  0  0  0
   39.2420   37.1190   17.4850 H   0  0  0  0  0  0  0  0  0  0  0  0
   34.2270   38.0160   25.7990 H   0  0  0  0  0  0  0  0  0  0  0  0
   35.0180   37.9400   18.8810 H   0  0  0  0  0  0  0  0  0  0  0  0
   36.7110   35.7930   14.3930 H   0  0  0  0  0  0  0  0  0  0  0  0
   34.9460   35.2610   16.0270 H   0  0  0  0  0  0  0  0  0  0  0  0
   34.5980   40.0790   20.3850 H   0  0  0  0  0  0  0  0  0  0  0  0
   33.9990   40.7040   24.5110 H   0  0  0  0  0  0  0  0  0  0  0  0
   30.5640   33.8260   23.8860 H   0  0  0  0  0  0  0  0  0  0  0  0
   31.8580   32.7950   23.5040 H   0  0  0  0  0  0  0  0  0  0  0  0
   31.8800   34.8800   22.0150 H   0  0  0  0  0  0  0  0  0  0  0  0
   31.8750   35.9350   23.4320 H   0  0  0  0  0  0  0  0  0  0  0  0
   34.1090   33.9420   22.9460 H   0  0  0  0  0  0  0  0  0  0  0  0
   35.4260   35.2900   24.4120 H   0  0  0  0  0  0  0  0  0  0  0  0
   33.9200   36.1040   25.0210 H   0  0  0  0  0  0  0  0  0  0  0  0
   34.4030   34.1140   26.4130 H   0  0  0  0  0  0  0  0  0  0  0  0
   34.3390   33.0490   24.9140 H   0  0  0  0  0  0  0  0  0  0  0  0
  1  2  1  0
  1 10  1  0
  2  6  1  0
  3  4  1  0
  3  6  1  0
  4 10  1  0
  5  8  2  0
  5 13  1  0
  7 18  1  0
  7 24  2  0
  7 25  1  0
  8 19  1  0
  8 20  1  0
  9 23  1  0
  9 26  2  0
  9 27  1  0
 10 27  1  0
 11 12  1  0
 11 16  2  0
 11 17  1  0
 12 18  2  0
 13 14  2  0
 13 21  1  0
 14 15  1  0
 15 19  2  0
 16 25  1  0
 16 26  1  0
 17 23  2  0
 18 22  1  0
 19 22  1  0
 25 30  1  0
 28 29  1  0
 28 33  1  0
 29 30  1  0
 30 31  1  0
 31 32  1  0
 32 33  1  0
  1 34  1  0
  1 35  1  0
  2 36  1  0
  2 37  1  0
  3 38  1  0
  3 39  1  0
  4 40  1  0
  4 41  1  0
  5 42  1  0
 10 43  1  0
 12 44  1  0
 14 45  1  0
 15 46  1  0
 17 47  1  0
 27 48  1  0
 28 49  1  0
 28 50  1  0
 29 51  1  0
 29 52  1  0
 30 53  1  0
 31 54  1  0
 31 55  1  0
 32 56  1  0
 32 57  1  0
M  END
$$$$
