Untitled
  xed2sdf           3D
 
 58 62  0  0  0  0  0  0  0  0999 V2000
   27.2850    8.0960   30.0230 C   0  0  0  0  0  0  0  0  0  0  0  0
   28.6490    8.6830   30.4090 C   0  0  0  0  0  0  0  0  0  0  0  0
   28.1410    8.9820   32.6830 C   0  0  0  0  0  0  0  0  0  0  0  0
   26.7030    8.5060   32.4700 C   0  0  0  0  0  0  0  0  0  0  0  0
   15.7410   10.3520   32.0190 C   0  0  0  0  0  0  0  0  0  0  0  0
   29.0570    8.4090   31.7380 O   0  0  0  0  0  0  0  0  0  0  0  0
   21.1490   12.2800   31.4140 C   0  0  0  0  0  0  0  0  0  0  0  0
   17.0760   10.8720   32.0640 C   0  0  0  0  0  0  0  0  0  0  0  0
   23.7020    8.3840   31.0240 C   0  0  0  0  0  0  0  0  0  0  0  0
   26.2090    8.5820   30.9600 C   0  0  0  0  0  0  0  0  0  0  0  0
   21.3300    9.4620   30.9640 C   0  0  0  0  0  0  0  0  0  0  0  0
   19.9810   10.1860   30.8510 C   0  0  0  0  0  0  0  0  0  0  0  0
   14.8670   10.6810   30.9340 C   0  0  0  0  0  0  0  0  0  0  0  0
   15.3280   11.5040   29.8980 C   0  0  0  0  0  0  0  0  0  0  0  0
   16.6250   12.1100   29.9990 C   0  0  0  0  0  0  0  0  0  0  0  0
   22.4280   10.2520   31.2530 C   0  0  0  0  0  0  0  0  0  0  0  0
   21.4470    8.0570   30.8890 C   0  0  0  0  0  0  0  0  0  0  0  0
   19.9080   11.5550   31.1040 C   0  0  0  0  0  0  0  0  0  0  0  0
   17.5070   11.8050   31.0460 C   0  0  0  0  0  0  0  0  0  0  0  0
   17.8890   10.5220   33.0780 F   0  0  0  0  0  0  0  0  0  0  0  0
   13.7680    9.9010   30.7900 F   0  0  0  0  0  0  0  0  0  0  0  0
   18.7990   12.3500   30.8740 O   0  0  0  0  0  0  0  0  0  0  0  0
   22.6740    7.5730   30.8750 N   0  0  0  0  0  0  0  0  0  0  0  0
   21.1090   13.5190   31.3710 O   0  0  0  0  0  0  0  0  0  0  0  0
   22.3560   11.5860   31.6940 N   0  0  0  0  0  0  0  0  0  0  0  0
   23.5970    9.6490   31.3420 N   0  0  0  0  0  0  0  0  0  0  0  0
   24.9720    7.8090   30.8770 N   0  0  0  0  0  0  0  0  0  0  0  0
   24.6660   13.8410   33.9060 C   0  0  0  0  0  0  0  0  0  0  0  0
   23.3440   13.2030   33.4620 C   0  0  0  0  0  0  0  0  0  0  0  0
   23.5690   12.2300   32.2730 C   0  0  0  0  0  0  0  0  0  0  0  0
   24.2150   12.9970   31.1300 C   0  0  0  0  0  0  0  0  0  0  0  0
   25.6110   13.5060   31.6570 C   0  0  0  0  0  0  0  0  0  0  0  0
   25.3820   14.4200   32.7440 N   0  0  0  0  0  0  0  0  0  0  0  0
   27.2810    7.0020   30.0400 H   0  0  0  0  0  0  0  0  0  0  0  0
   27.1320    8.3930   28.9800 H   0  0  0  0  0  0  0  0  0  0  0  0
   28.7390    9.7730   30.3910 H   0  0  0  0  0  0  0  0  0  0  0  0
   29.4340    8.1920   29.8260 H   0  0  0  0  0  0  0  0  0  0  0  0
   28.1090   10.0740   32.6180 H   0  0  0  0  0  0  0  0  0  0  0  0
   28.4710    8.7560   33.7020 H   0  0  0  0  0  0  0  0  0  0  0  0
   26.6320    7.4310   32.6610 H   0  0  0  0  0  0  0  0  0  0  0  0
   26.0450    8.9980   33.1940 H   0  0  0  0  0  0  0  0  0  0  0  0
   15.5260    9.6160   32.7870 H   0  0  0  0  0  0  0  0  0  0  0  0
   25.9820    9.6400   30.7950 H   0  0  0  0  0  0  0  0  0  0  0  0
   19.1590    9.6080   30.4410 H   0  0  0  0  0  0  0  0  0  0  0  0
   14.6500   11.6450   29.0620 H   0  0  0  0  0  0  0  0  0  0  0  0
   17.0800   12.6970   29.2060 H   0  0  0  0  0  0  0  0  0  0  0  0
   20.5210    7.5100   30.7380 H   0  0  0  0  0  0  0  0  0  0  0  0
   24.9060    6.7940   30.8280 H   0  0  0  0  0  0  0  0  0  0  0  0
   25.1930   13.0520   34.4520 H   0  0  0  0  0  0  0  0  0  0  0  0
   24.4700   14.6320   34.6360 H   0  0  0  0  0  0  0  0  0  0  0  0
   22.7510   14.0500   33.1040 H   0  0  0  0  0  0  0  0  0  0  0  0
   22.7960   12.6890   34.2580 H   0  0  0  0  0  0  0  0  0  0  0  0
   24.2880   11.4760   32.6020 H   0  0  0  0  0  0  0  0  0  0  0  0
   23.6300   13.8210   30.7100 H   0  0  0  0  0  0  0  0  0  0  0  0
   24.4300   12.3530   30.2720 H   0  0  0  0  0  0  0  0  0  0  0  0
   26.2170   12.6360   31.9310 H   0  0  0  0  0  0  0  0  0  0  0  0
   26.0730   14.0820   30.8490 H   0  0  0  0  0  0  0  0  0  0  0  0
   26.2820   14.7540   33.0860 H   0  0  0  0  0  0  0  0  0  0  0  0
  1  2  1  0
  1 10  1  0
  2  6  1  0
  3  4  1  0
  3  6  1  0
  4 10  1  0
  5  8  2  0
  5 13  1  0
  7 18  1  0
  7 24  2  0
  7 25  1  0
  8 19  1  0
  8 20  1  0
  9 23  1  0
  9 26  2  0
  9 27  1  0
 10 27  1  0
 11 12  1  0
 11 16  2  0
 11 17  1  0
 12 18  2  0
 13 14  2  0
 13 21  1  0
 14 15  1  0
 15 19  2  0
 16 25  1  0
 16 26  1  0
 17 23  2  0
 18 22  1  0
 19 22  1  0
 25 30  1  0
 28 29  1  0
 28 33  1  0
 29 30  1  0
 30 31  1  0
 31 32  1  0
 32 33  1  0
  1 34  1  0
  1 35  1  0
  2 36  1  0
  2 37  1  0
  3 38  1  0
  3 39  1  0
  4 40  1  0
  4 41  1  0
  5 42  1  0
 10 43  1  0
 12 44  1  0
 14 45  1  0
 15 46  1  0
 17 47  1  0
 27 48  1  0
 28 49  1  0
 28 50  1  0
 29 51  1  0
 29 52  1  0
 30 53  1  0
 31 54  1  0
 31 55  1  0
 32 56  1  0
 32 57  1  0
 33 58  1  0
M  END
$$$$
