Untitled
  xed2sdf           3D
 
 45 48  0  0  0  0  0  0  0  0999 V2000
   31.5000   38.6510   25.8330 C   0  0  0  0  0  0  0  0  0  0  0  0
   30.8220   37.7990   26.9390 C   0  0  0  0  0  0  0  0  0  0  0  0
   32.7270   38.1420   28.4130 C   0  0  0  0  0  0  0  0  0  0  0  0
   33.5210   38.6120   27.2280 C   0  0  0  0  0  0  0  0  0  0  0  0
   31.2780   38.3310   28.2090 O   0  0  0  0  0  0  0  0  0  0  0  0
   34.7880   35.2420   20.3430 C   0  0  0  0  0  0  0  0  0  0  0  0
   34.0300   38.4800   23.6100 C   0  0  0  0  0  0  0  0  0  0  0  0
   32.9200   38.2460   25.8440 C   0  0  0  0  0  0  0  0  0  0  0  0
   34.7760   37.8530   21.1820 C   0  0  0  0  0  0  0  0  0  0  0  0
   35.2610   37.5870   19.8380 C   0  0  0  0  0  0  0  0  0  0  0  0
   34.4820   36.8910   22.0880 C   0  0  0  0  0  0  0  0  0  0  0  0
   34.7300   39.1570   21.6030 C   0  0  0  0  0  0  0  0  0  0  0  0
   35.2290   36.3000   19.4100 C   0  0  0  0  0  0  0  0  0  0  0  0
   34.1560   34.5260   22.6000 C   0  0  0  0  0  0  0  0  0  0  0  0
   34.2940   39.4830   22.7950 N   0  0  0  0  0  0  0  0  0  0  0  0
   34.8620   34.0910   20.0030 O   0  0  0  0  0  0  0  0  0  0  0  0
   34.4900   35.6160   21.6820 N   0  0  0  0  0  0  0  0  0  0  0  0
   34.0650   37.2410   23.3240 N   0  0  0  0  0  0  0  0  0  0  0  0
   33.7510   38.9210   24.8590 N   0  0  0  0  0  0  0  0  0  0  0  0
   36.7900   35.6150   15.5440 C   0  0  0  0  0  0  0  0  0  0  0  0
   37.5810   36.1730   16.5420 C   0  0  0  0  0  0  0  0  0  0  0  0
   37.0780   36.3370   17.8880 C   0  0  0  0  0  0  0  0  0  0  0  0
   35.7430   35.9860   18.1510 C   0  0  0  0  0  0  0  0  0  0  0  0
   34.9170   35.4750   17.1170 C   0  0  0  0  0  0  0  0  0  0  0  0
   35.4670   35.2510   15.7960 C   0  0  0  0  0  0  0  0  0  0  0  0
   31.4030   39.7370   25.9160 H   0  0  0  0  0  0  0  0  0  0  0  0
   31.0990   38.3040   24.8770 H   0  0  0  0  0  0  0  0  0  0  0  0
   29.7340   37.8410   26.8330 H   0  0  0  0  0  0  0  0  0  0  0  0
   31.2340   36.7860   26.9130 H   0  0  0  0  0  0  0  0  0  0  0  0
   32.9990   37.0960   28.5880 H   0  0  0  0  0  0  0  0  0  0  0  0
   32.9480   38.6310   29.3670 H   0  0  0  0  0  0  0  0  0  0  0  0
   34.5540   38.2630   27.3100 H   0  0  0  0  0  0  0  0  0  0  0  0
   33.5200   39.7060   27.2240 H   0  0  0  0  0  0  0  0  0  0  0  0
   32.9760   37.1630   25.6970 H   0  0  0  0  0  0  0  0  0  0  0  0
   35.7450   38.2910   19.1680 H   0  0  0  0  0  0  0  0  0  0  0  0
   34.9800   40.0160   20.9880 H   0  0  0  0  0  0  0  0  0  0  0  0
   34.0210   34.9480   23.6010 H   0  0  0  0  0  0  0  0  0  0  0  0
   34.9090   33.7330   22.5740 H   0  0  0  0  0  0  0  0  0  0  0  0
   33.1780   34.0770   22.4060 H   0  0  0  0  0  0  0  0  0  0  0  0
   33.9570   39.9050   25.0320 H   0  0  0  0  0  0  0  0  0  0  0  0
   37.1750   35.6030   14.5290 H   0  0  0  0  0  0  0  0  0  0  0  0
   38.5550   36.5070   16.2010 H   0  0  0  0  0  0  0  0  0  0  0  0
   37.7330   36.7160   18.6650 H   0  0  0  0  0  0  0  0  0  0  0  0
   33.8710   35.2500   17.3000 H   0  0  0  0  0  0  0  0  0  0  0  0
   34.8450   34.7450   15.0650 H   0  0  0  0  0  0  0  0  0  0  0  0
  1  2  1  0
  1  8  1  0
  2  5  1  0
  3  4  1  0
  3  5  1  0
  4  8  1  0
  6 13  1  0
  6 16  2  0
  6 17  1  0
  7 15  1  0
  7 18  2  0
  7 19  1  0
  8 19  1  0
  9 10  1  0
  9 11  2  0
  9 12  1  0
 10 13  2  0
 11 17  1  0
 11 18  1  0
 12 15  2  0
 13 23  1  0
 14 17  1  0
 20 21  2  0
 20 25  1  0
 21 22  1  0
 22 23  2  0
 23 24  1  0
 24 25  2  0
  1 26  1  0
  1 27  1  0
  2 28  1  0
  2 29  1  0
  3 30  1  0
  3 31  1  0
  4 32  1  0
  4 33  1  0
  8 34  1  0
 10 35  1  0
 12 36  1  0
 14 37  1  0
 14 38  1  0
 14 39  1  0
 19 40  1  0
 20 41  1  0
 21 42  1  0
 22 43  1  0
 24 44  1  0
 25 45  1  0
M  END
$$$$
